!New transformer.Dist_transformer_10148922_9108515 windings=2 phases=3 buses=(sourcebus 9108515) conns=(delta wye) kvs=(11 0.415) kvas=(500 500) XHL=12 ppm_antifloat=0 %noloadloss=0 %imag=0
!New transformer.Dist_transformer_10148922_9108515 windings=2 phases=3 buses=(sourcebusZ 9108515) conns=(delta wye) kvs=(11 0.415) kvas=(500 500) XHL=12 ppm_antifloat=0 %noloadloss=0 %imag=0
New transformer.Dist_transformer_10148922_9108515 windings=2 phases=3 buses=(sourcebusZ 9108515) conns=(delta wye) kvs=(11 0.415) kvas=(750 750) XHL=4.9 ppm_antifloat=0 %noloadloss=0 %imag=0
