! chosen manually using master
! ID here then replace in xxxx

new load.str_9067026_1 bus1=9067026.1 kv=0.2396003617136947 phases=1 kW=0 pf=1
new load.str_9067026_2 bus1=9067026.2 kv=0.2396003617136947 phases=1 kW=0 pf=1
new load.str_9067026_3 bus1=9067026.3 kv=0.2396003617136947 phases=1 kW=0 pf=1
