new load.load_11552508 bus1=11552508.1 kv=0.2396003617136947  phases=1 kW=1 pf=1
new load.load_10500837 bus1=10500837.2 kv=0.2396003617136947  phases=1 kW=1 pf=1
new load.load_11615216 bus1=11615216.3 kv=0.2396003617136947  phases=1 kW=1 pf=1
new load.load_10514764 bus1=10514764.1 kv=0.2396003617136947  phases=1 kW=1 pf=1
new load.load_11425047 bus1=11425047.2 kv=0.2396003617136947  phases=1 kW=1 pf=1
new load.load_11564678 bus1=11564678.3 kv=0.2396003617136947  phases=1 kW=1 pf=1
new load.load_11564679 bus1=11564679.1 kv=0.2396003617136947  phases=1 kW=1 pf=1
new load.load_11477626 bus1=11477626.2 kv=0.2396003617136947  phases=1 kW=1 pf=1
new load.load_10500838 bus1=10500838.3 kv=0.2396003617136947  phases=1 kW=1 pf=1
new load.load_11566938 bus1=11566938.1 kv=0.2396003617136947  phases=1 kW=1 pf=1
new load.load_11571153 bus1=11571153.2 kv=0.2396003617136947  phases=1 kW=1 pf=1
new load.load_11570312 bus1=11570312.3 kv=0.2396003617136947  phases=1 kW=1 pf=1
new load.load_11566939 bus1=11566939.1 kv=0.2396003617136947  phases=1 kW=1 pf=1
new load.load_11540372 bus1=11540372.2 kv=0.2396003617136947  phases=1 kW=1 pf=1
new load.load_11555425 bus1=11555425.3 kv=0.2396003617136947  phases=1 kW=1 pf=1
new load.load_10503449 bus1=10503449.1 kv=0.2396003617136947  phases=1 kW=1 pf=1
new load.load_10498390 bus1=10498390.2 kv=0.2396003617136947  phases=1 kW=1 pf=1
new load.load_11570329 bus1=11570329.3 kv=0.2396003617136947  phases=1 kW=1 pf=1
new load.load_10569455 bus1=10569455.1 kv=0.2396003617136947  phases=1 kW=1 pf=1
new load.load_11569985 bus1=11569985.2 kv=0.2396003617136947  phases=1 kW=1 pf=1
new load.load_11569984 bus1=11569984.3 kv=0.2396003617136947  phases=1 kW=1 pf=1
new load.load_11555408 bus1=11555408.1 kv=0.2396003617136947  phases=1 kW=1 pf=1
new load.load_11567821 bus1=11567821.2 kv=0.2396003617136947  phases=1 kW=1 pf=1
new load.load_11571575 bus1=11571575.3 kv=0.2396003617136947  phases=1 kW=1 pf=1
new load.load_11570438 bus1=11570438.1 kv=0.2396003617136947  phases=1 kW=1 pf=1
new load.load_11615214 bus1=11615214.2 kv=0.2396003617136947  phases=1 kW=1 pf=1
new load.load_11546727 bus1=11546727.3 kv=0.2396003617136947  phases=1 kW=1 pf=1
new load.load_10509034 bus1=10509034.1 kv=0.2396003617136947  phases=1 kW=1 pf=1
new load.load_10558956 bus1=10558956.2 kv=0.2396003617136947  phases=1 kW=1 pf=1
new load.load_10509032 bus1=10509032.3 kv=0.2396003617136947  phases=1 kW=1 pf=1
new load.load_11615211 bus1=11615211.1 kv=0.2396003617136947  phases=1 kW=1 pf=1
new load.load_11615215 bus1=11615215.2 kv=0.2396003617136947  phases=1 kW=1 pf=1
new load.load_11567822 bus1=11567822.3 kv=0.2396003617136947  phases=1 kW=1 pf=1
new load.load_11571554 bus1=11571554.1 kv=0.2396003617136947  phases=1 kW=1 pf=1
new load.load_11574580 bus1=11574580.2 kv=0.2396003617136947  phases=1 kW=1 pf=1
new load.load_11567823 bus1=11567823.3 kv=0.2396003617136947  phases=1 kW=1 pf=1
new load.load_10507414 bus1=10507414.1 kv=0.2396003617136947  phases=1 kW=1 pf=1
new load.load_10498301 bus1=10498301.2 kv=0.2396003617136947  phases=1 kW=1 pf=1
new load.load_10473649 bus1=10473649.3 kv=0.2396003617136947  phases=1 kW=1 pf=1
new load.load_10558982 bus1=10558982.1 kv=0.2396003617136947  phases=1 kW=1 pf=1
new load.load_10558983 bus1=10558983.2 kv=0.2396003617136947  phases=1 kW=1 pf=1
new load.load_11567872 bus1=11567872.3 kv=0.2396003617136947  phases=1 kW=1 pf=1
new load.load_11566940 bus1=11566940.1 kv=0.2396003617136947  phases=1 kW=1 pf=1
new load.load_11555407 bus1=11555407.2 kv=0.2396003617136947  phases=1 kW=1 pf=1
new load.load_10496118 bus1=10496118.3 kv=0.2396003617136947  phases=1 kW=1 pf=1
new load.load_10503463 bus1=10503463.1 kv=0.2396003617136947  phases=1 kW=1 pf=1
new load.load_10569444 bus1=10569444.2 kv=0.2396003617136947  phases=1 kW=1 pf=1
new load.load_10498371 bus1=10498371.3 kv=0.2396003617136947  phases=1 kW=1 pf=1
new load.load_10567013 bus1=10567013.1 kv=0.2396003617136947  phases=1 kW=1 pf=1
new load.load_10496129 bus1=10496129.2 kv=0.2396003617136947  phases=1 kW=1 pf=1
new load.load_11574579 bus1=11574579.3 kv=0.2396003617136947  phases=1 kW=1 pf=1
new load.load_11567866 bus1=11567866.1 kv=0.2396003617136947  phases=1 kW=1 pf=1
new load.load_10509097 bus1=10509097.2 kv=0.2396003617136947  phases=1 kW=1 pf=1
new load.load_11570433 bus1=11570433.3 kv=0.2396003617136947  phases=1 kW=1 pf=1
new load.load_10567067 bus1=10567067.1 kv=0.2396003617136947  phases=1 kW=1 pf=1
new load.load_11553593 bus1=11553593.2 kv=0.2396003617136947  phases=1 kW=1 pf=1
new load.load_10518016 bus1=10518016.3 kv=0.2396003617136947  phases=1 kW=1 pf=1
new load.load_11570447 bus1=11570447.1 kv=0.2396003617136947  phases=1 kW=1 pf=1
new load.load_11567801 bus1=11567801.2 kv=0.2396003617136947  phases=1 kW=1 pf=1
new load.load_10554712 bus1=10554712.3 kv=0.2396003617136947  phases=1 kW=1 pf=1
new load.load_11570321 bus1=11570321.1 kv=0.2396003617136947  phases=1 kW=1 pf=1
new load.load_11552511 bus1=11552511.2 kv=0.2396003617136947  phases=1 kW=1 pf=1
new load.load_10558978 bus1=10558978.3 kv=0.2396003617136947  phases=1 kW=1 pf=1
new load.load_11477630 bus1=11477630.1 kv=0.2396003617136947  phases=1 kW=1 pf=1
new load.load_10500840 bus1=10500840.2 kv=0.2396003617136947  phases=1 kW=1 pf=1
new load.load_11566936 bus1=11566936.3 kv=0.2396003617136947  phases=1 kW=1 pf=1
new load.load_10507415 bus1=10507415.1 kv=0.2396003617136947  phases=1 kW=1 pf=1
new load.load_10503453 bus1=10503453.2 kv=0.2396003617136947  phases=1 kW=1 pf=1
new load.load_11566943 bus1=11566943.3 kv=0.2396003617136947  phases=1 kW=1 pf=1
new load.load_10509055 bus1=10509055.1 kv=0.2396003617136947  phases=1 kW=1 pf=1
new load.load_10496131 bus1=10496131.2 kv=0.2396003617136947  phases=1 kW=1 pf=1
new load.load_10509072 bus1=10509072.3 kv=0.2396003617136947  phases=1 kW=1 pf=1
new load.load_10569430 bus1=10569430.1 kv=0.2396003617136947  phases=1 kW=1 pf=1
new load.load_10509079 bus1=10509079.2 kv=0.2396003617136947  phases=1 kW=1 pf=1
new load.load_10504411 bus1=10504411.3 kv=0.2396003617136947  phases=1 kW=1 pf=1
new load.load_10496113 bus1=10496113.1 kv=0.2396003617136947  phases=1 kW=1 pf=1
new load.load_11570446 bus1=11570446.2 kv=0.2396003617136947  phases=1 kW=1 pf=1
new load.load_10504367 bus1=10504367.3 kv=0.2396003617136947  phases=1 kW=1 pf=1
new load.load_10525009 bus1=10525009.1 kv=0.2396003617136947  phases=1 kW=1 pf=1
new load.load_11570330 bus1=11570330.2 kv=0.2396003617136947  phases=1 kW=1 pf=1
new load.load_11571573 bus1=11571573.3 kv=0.2396003617136947  phases=1 kW=1 pf=1
new load.load_10525000 bus1=10525000.1 kv=0.2396003617136947  phases=1 kW=1 pf=1
new load.load_11571574 bus1=11571574.2 kv=0.2396003617136947  phases=1 kW=1 pf=1
new load.load_10525001 bus1=10525001.3 kv=0.2396003617136947  phases=1 kW=1 pf=1
new load.load_10500806 bus1=10500806.1 kv=0.2396003617136947  phases=1 kW=1 pf=1
new load.load_11567802 bus1=11567802.2 kv=0.2396003617136947  phases=1 kW=1 pf=1
new load.load_10504370 bus1=10504370.3 kv=0.2396003617136947  phases=1 kW=1 pf=1
new load.load_11555410 bus1=11555410.1 kv=0.2396003617136947  phases=1 kW=1 pf=1
new load.load_11571571 bus1=11571571.2 kv=0.2396003617136947  phases=1 kW=1 pf=1
new load.load_11567800 bus1=11567800.3 kv=0.2396003617136947  phases=1 kW=1 pf=1
new load.load_10498370 bus1=10498370.1 kv=0.2396003617136947  phases=1 kW=1 pf=1
new load.load_10497952 bus1=10497952.2 kv=0.2396003617136947  phases=1 kW=1 pf=1
new load.load_11546720 bus1=11546720.3 kv=0.2396003617136947  phases=1 kW=1 pf=1
new load.load_11567803 bus1=11567803.1 kv=0.2396003617136947  phases=1 kW=1 pf=1
new load.load_10514718 bus1=10514718.2 kv=0.2396003617136947  phases=1 kW=1 pf=1
new load.load_10514700 bus1=10514700.3 kv=0.2396003617136947  phases=1 kW=1 pf=1
new load.load_11570442 bus1=11570442.1 kv=0.2396003617136947  phases=1 kW=1 pf=1
new load.load_11571152 bus1=11571152.2 kv=0.2396003617136947  phases=1 kW=1 pf=1
new load.load_10498373 bus1=10498373.3 kv=0.2396003617136947  phases=1 kW=1 pf=1
new load.load_10514702 bus1=10514702.1 kv=0.2396003617136947  phases=1 kW=1 pf=1
new load.load_11553594 bus1=11553594.2 kv=0.2396003617136947  phases=1 kW=1 pf=1
new load.load_11552510 bus1=11552510.3 kv=0.2396003617136947  phases=1 kW=1 pf=1
new load.load_10567066 bus1=10567066.1 kv=0.2396003617136947  phases=1 kW=1 pf=1
new load.load_10496136 bus1=10496136.2 kv=0.2396003617136947  phases=1 kW=1 pf=1
new load.load_11567820 bus1=11567820.3 kv=0.2396003617136947  phases=1 kW=1 pf=1
new load.load_11570435 bus1=11570435.1 kv=0.2396003617136947  phases=1 kW=1 pf=1
new load.load_10569456 bus1=10569456.2 kv=0.2396003617136947  phases=1 kW=1 pf=1
new load.load_10500818 bus1=10500818.3 kv=0.2396003617136947  phases=1 kW=1 pf=1
new load.load_11569982 bus1=11569982.1 kv=0.2396003617136947  phases=1 kW=1 pf=1
new load.load_11615217 bus1=11615217.2 kv=0.2396003617136947  phases=1 kW=1 pf=1
new load.load_11567798 bus1=11567798.3 kv=0.2396003617136947  phases=1 kW=1 pf=1
new load.load_11564692 bus1=11564692.1 kv=0.2396003617136947  phases=1 kW=1 pf=1
new load.load_10524968 bus1=10524968.2 kv=0.2396003617136947  phases=1 kW=1 pf=1
new load.load_10473632 bus1=10473632.3 kv=0.2396003617136947  phases=1 kW=1 pf=1
new load.load_11570331 bus1=11570331.1 kv=0.2396003617136947  phases=1 kW=1 pf=1
new load.load_10497963 bus1=10497963.2 kv=0.2396003617136947  phases=1 kW=1 pf=1
new load.load_11615212 bus1=11615212.3 kv=0.2396003617136947  phases=1 kW=1 pf=1
new load.load_10567028 bus1=10567028.1 kv=0.2396003617136947  phases=1 kW=1 pf=1
new load.load_11553580 bus1=11553580.2 kv=0.2396003617136947  phases=1 kW=1 pf=1
new load.load_10509058 bus1=10509058.3 kv=0.2396003617136947  phases=1 kW=1 pf=1
new load.load_11570332 bus1=11570332.1 kv=0.2396003617136947  phases=1 kW=1 pf=1
new load.load_10514698 bus1=10514698.2 kv=0.2396003617136947  phases=1 kW=1 pf=1
new load.load_11566942 bus1=11566942.3 kv=0.2396003617136947  phases=1 kW=1 pf=1
new load.load_10509066 bus1=10509066.1 kv=0.2396003617136947  phases=1 kW=1 pf=1
new load.load_10504369 bus1=10504369.2 kv=0.2396003617136947  phases=1 kW=1 pf=1
new load.load_11569983 bus1=11569983.3 kv=0.2396003617136947  phases=1 kW=1 pf=1
new load.load_11567857 bus1=11567857.1 kv=0.2396003617136947  phases=1 kW=1 pf=1
new load.load_11569980 bus1=11569980.2 kv=0.2396003617136947  phases=1 kW=1 pf=1
new load.load_10496134 bus1=10496134.3 kv=0.2396003617136947  phases=1 kW=1 pf=1
new load.load_11570436 bus1=11570436.1 kv=0.2396003617136947  phases=1 kW=1 pf=1
new load.load_11426974 bus1=11426974.2 kv=0.2396003617136947  phases=1 kW=1 pf=1
new load.load_10509059 bus1=10509059.3 kv=0.2396003617136947  phases=1 kW=1 pf=1
new load.load_10496135 bus1=10496135.1 kv=0.2396003617136947  phases=1 kW=1 pf=1
new load.load_11553592 bus1=11553592.2 kv=0.2396003617136947  phases=1 kW=1 pf=1
new load.load_11564677 bus1=11564677.3 kv=0.2396003617136947  phases=1 kW=1 pf=1
new load.load_11555409 bus1=11555409.1 kv=0.2396003617136947  phases=1 kW=1 pf=1
new load.load_11544561 bus1=11544561.2 kv=0.2396003617136947  phases=1 kW=1 pf=1
new load.load_11610318 bus1=11610318.3 kv=0.2396003617136947  phases=1 kW=1 pf=1
new load.load_11610312 bus1=11610312.1 kv=0.2396003617136947  phases=1 kW=1 pf=1
new load.load_10517977 bus1=10517977.2 kv=0.2396003617136947  phases=1 kW=1 pf=1
new load.load_10524990 bus1=10524990.3 kv=0.2396003617136947  phases=1 kW=1 pf=1
new load.load_11567804 bus1=11567804.1 kv=0.2396003617136947  phases=1 kW=1 pf=1
new load.load_10554076 bus1=10554076.2 kv=0.2396003617136947  phases=1 kW=1 pf=1
new load.load_10558980 bus1=10558980.3 kv=0.2396003617136947  phases=1 kW=1 pf=1
new load.load_10473650 bus1=10473650.1 kv=0.2396003617136947  phases=1 kW=1 pf=1
new load.load_11571556 bus1=11571556.2 kv=0.2396003617136947  phases=1 kW=1 pf=1
new load.load_11540392 bus1=11540392.3 kv=0.2396003617136947  phases=1 kW=1 pf=1
new load.load_11570441 bus1=11570441.1 kv=0.2396003617136947  phases=1 kW=1 pf=1
new load.load_11544567 bus1=11544567.2 kv=0.2396003617136947  phases=1 kW=1 pf=1
new load.load_10567058 bus1=10567058.3 kv=0.2396003617136947  phases=1 kW=1 pf=1
new load.load_11544569 bus1=11544569.1 kv=0.2396003617136947  phases=1 kW=1 pf=1
new load.load_11615213 bus1=11615213.2 kv=0.2396003617136947  phases=1 kW=1 pf=1
new load.load_10567012 bus1=10567012.3 kv=0.2396003617136947  phases=1 kW=1 pf=1
new load.load_10497953 bus1=10497953.1 kv=0.2396003617136947  phases=1 kW=1 pf=1
new load.load_11570434 bus1=11570434.2 kv=0.2396003617136947  phases=1 kW=1 pf=1
new load.load_11571151 bus1=11571151.3 kv=0.2396003617136947  phases=1 kW=1 pf=1
new load.load_11615221 bus1=11615221.1 kv=0.2396003617136947  phases=1 kW=1 pf=1
new load.load_10504413 bus1=10504413.2 kv=0.2396003617136947  phases=1 kW=1 pf=1
new load.load_10500839 bus1=10500839.3 kv=0.2396003617136947  phases=1 kW=1 pf=1
new load.load_10507366 bus1=10507366.1 kv=0.2396003617136947  phases=1 kW=1 pf=1
new load.load_11546726 bus1=11546726.2 kv=0.2396003617136947  phases=1 kW=1 pf=1
new load.load_11566924 bus1=11566924.3 kv=0.2396003617136947  phases=1 kW=1 pf=1
new load.load_10500781 bus1=10500781.1 kv=0.2396003617136947  phases=1 kW=1 pf=1
new load.load_10556585 bus1=10556585.2 kv=0.2396003617136947  phases=1 kW=1 pf=1
new load.load_11571572 bus1=11571572.3 kv=0.2396003617136947  phases=1 kW=1 pf=1
new load.load_10498364 bus1=10498364.1 kv=0.2396003617136947  phases=1 kW=1 pf=1
new load.load_10509033 bus1=10509033.2 kv=0.2396003617136947  phases=1 kW=1 pf=1
new load.load_11477627 bus1=11477627.3 kv=0.2396003617136947  phases=1 kW=1 pf=1
new load.load_10567068 bus1=10567068.1 kv=0.2396003617136947  phases=1 kW=1 pf=1
new load.load_11544560 bus1=11544560.2 kv=0.2396003617136947  phases=1 kW=1 pf=1
new load.load_11615218 bus1=11615218.3 kv=0.2396003617136947  phases=1 kW=1 pf=1
new load.load_10504412 bus1=10504412.1 kv=0.2396003617136947  phases=1 kW=1 pf=1
new load.load_10509056 bus1=10509056.2 kv=0.2396003617136947  phases=1 kW=1 pf=1
new load.load_11546711 bus1=11546711.3 kv=0.2396003617136947  phases=1 kW=1 pf=1
new load.load_10503452 bus1=10503452.1 kv=0.2396003617136947  phases=1 kW=1 pf=1
new load.load_11574577 bus1=11574577.2 kv=0.2396003617136947  phases=1 kW=1 pf=1
new load.load_11570432 bus1=11570432.3 kv=0.2396003617136947  phases=1 kW=1 pf=1
new load.load_11610319 bus1=11610319.1 kv=0.2396003617136947  phases=1 kW=1 pf=1
new load.load_10473617 bus1=10473617.2 kv=0.2396003617136947  phases=1 kW=1 pf=1
new load.load_10504410 bus1=10504410.3 kv=0.2396003617136947  phases=1 kW=1 pf=1
new load.load_10509067 bus1=10509067.1 kv=0.2396003617136947  phases=1 kW=1 pf=1
new load.load_10473616 bus1=10473616.2 kv=0.2396003617136947  phases=1 kW=1 pf=1
new load.load_10507408 bus1=10507408.3 kv=0.2396003617136947  phases=1 kW=1 pf=1
new load.load_11544571 bus1=11544571.1 kv=0.2396003617136947  phases=1 kW=1 pf=1
new load.load_11567875 bus1=11567875.2 kv=0.2396003617136947  phases=1 kW=1 pf=1
new load.load_10514701 bus1=10514701.3 kv=0.2396003617136947  phases=1 kW=1 pf=1
new load.load_11567853 bus1=11567853.1 kv=0.2396003617136947  phases=1 kW=1 pf=1
new load.load_11574572 bus1=11574572.2 kv=0.2396003617136947  phases=1 kW=1 pf=1
new load.load_10569453 bus1=10569453.3 kv=0.2396003617136947  phases=1 kW=1 pf=1
new load.load_11426936 bus1=11426936.1 kv=0.2396003617136947  phases=1 kW=1 pf=1
new load.load_10569445 bus1=10569445.2 kv=0.2396003617136947  phases=1 kW=1 pf=1
new load.load_11570437 bus1=11570437.3 kv=0.2396003617136947  phases=1 kW=1 pf=1
new load.load_10496137 bus1=10496137.1 kv=0.2396003617136947  phases=1 kW=1 pf=1
new load.load_10525010 bus1=10525010.2 kv=0.2396003617136947  phases=1 kW=1 pf=1
new load.load_11540371 bus1=11540371.3 kv=0.2396003617136947  phases=1 kW=1 pf=1
new load.load_10509081 bus1=10509081.1 kv=0.2396003617136947  phases=1 kW=1 pf=1
new load.load_11477628 bus1=11477628.2 kv=0.2396003617136947  phases=1 kW=1 pf=1
new load.load_10509080 bus1=10509080.3 kv=0.2396003617136947  phases=1 kW=1 pf=1
new load.load_11570439 bus1=11570439.1 kv=0.2396003617136947  phases=1 kW=1 pf=1
new load.load_11606180 bus1=11606180.2 kv=0.2396003617136947  phases=1 kW=1 pf=1
new load.load_11606182 bus1=11606182.3 kv=0.2396003617136947  phases=1 kW=1 pf=1
new load.load_11426975 bus1=11426975.1 kv=0.2396003617136947  phases=1 kW=1 pf=1
new load.load_11571134 bus1=11571134.2 kv=0.2396003617136947  phases=1 kW=1 pf=1
new load.load_11606181 bus1=11606181.3 kv=0.2396003617136947  phases=1 kW=1 pf=1
new load.load_10554723 bus1=10554723.1 kv=0.2396003617136947  phases=1 kW=1 pf=1
new load.load_10507367 bus1=10507367.2 kv=0.2396003617136947  phases=1 kW=1 pf=1
new load.load_10554725 bus1=10554725.3 kv=0.2396003617136947  phases=1 kW=1 pf=1
new load.load_10509065 bus1=10509065.1 kv=0.2396003617136947  phases=1 kW=1 pf=1
new load.load_10507417 bus1=10507417.2 kv=0.2396003617136947  phases=1 kW=1 pf=1
new load.load_11615220 bus1=11615220.3 kv=0.2396003617136947  phases=1 kW=1 pf=1
new load.load_10514763 bus1=10514763.1 kv=0.2396003617136947  phases=1 kW=1 pf=1
new load.load_10556586 bus1=10556586.2 kv=0.2396003617136947  phases=1 kW=1 pf=1
new load.load_11555411 bus1=11555411.3 kv=0.2396003617136947  phases=1 kW=1 pf=1
new load.load_10509057 bus1=10509057.1 kv=0.2396003617136947  phases=1 kW=1 pf=1
new load.load_10509028 bus1=10509028.2 kv=0.2396003617136947  phases=1 kW=1 pf=1
new load.load_10567069 bus1=10567069.3 kv=0.2396003617136947  phases=1 kW=1 pf=1
new load.load_10498302 bus1=10498302.1 kv=0.2396003617136947  phases=1 kW=1 pf=1
new load.load_10504434 bus1=10504434.2 kv=0.2396003617136947  phases=1 kW=1 pf=1
new load.load_11567870 bus1=11567870.3 kv=0.2396003617136947  phases=1 kW=1 pf=1
new load.load_10509030 bus1=10509030.1 kv=0.2396003617136947  phases=1 kW=1 pf=1
new load.load_11571555 bus1=11571555.2 kv=0.2396003617136947  phases=1 kW=1 pf=1
new load.load_10558981 bus1=10558981.3 kv=0.2396003617136947  phases=1 kW=1 pf=1
new load.load_10498369 bus1=10498369.1 kv=0.2396003617136947  phases=1 kW=1 pf=1
new load.load_11569981 bus1=11569981.2 kv=0.2396003617136947  phases=1 kW=1 pf=1
new load.load_10504446 bus1=10504446.3 kv=0.2396003617136947  phases=1 kW=1 pf=1
new load.load_10517954 bus1=10517954.1 kv=0.2396003617136947  phases=1 kW=1 pf=1
new load.load_11540394 bus1=11540394.2 kv=0.2396003617136947  phases=1 kW=1 pf=1
new load.load_11570445 bus1=11570445.3 kv=0.2396003617136947  phases=1 kW=1 pf=1
new load.load_11566941 bus1=11566941.1 kv=0.2396003617136947  phases=1 kW=1 pf=1
new load.load_11610313 bus1=11610313.2 kv=0.2396003617136947  phases=1 kW=1 pf=1
new load.load_11553591 bus1=11553591.3 kv=0.2396003617136947  phases=1 kW=1 pf=1
new load.load_10525008 bus1=10525008.1 kv=0.2396003617136947  phases=1 kW=1 pf=1
new load.load_10503451 bus1=10503451.2 kv=0.2396003617136947  phases=1 kW=1 pf=1
new load.load_10556584 bus1=10556584.3 kv=0.2396003617136947  phases=1 kW=1 pf=1
new load.load_11552509 bus1=11552509.1 kv=0.2396003617136947  phases=1 kW=1 pf=1
new load.load_11555426 bus1=11555426.2 kv=0.2396003617136947  phases=1 kW=1 pf=1
new load.load_11544559 bus1=11544559.3 kv=0.2396003617136947  phases=1 kW=1 pf=1
new load.load_10563312 bus1=10563312.1 kv=0.2396003617136947  phases=1 kW=1 pf=1
new load.load_10554077 bus1=10554077.2 kv=0.2396003617136947  phases=1 kW=1 pf=1
new load.load_11546721 bus1=11546721.3 kv=0.2396003617136947  phases=1 kW=1 pf=1
new load.load_11606192 bus1=11606192.1 kv=0.2396003617136947  phases=1 kW=1 pf=1
new load.load_10500820 bus1=10500820.2 kv=0.2396003617136947  phases=1 kW=1 pf=1
new load.load_11610317 bus1=11610317.3 kv=0.2396003617136947  phases=1 kW=1 pf=1
new load.load_11569987 bus1=11569987.1 kv=0.2396003617136947  phases=1 kW=1 pf=1
new load.load_11569986 bus1=11569986.2 kv=0.2396003617136947  phases=1 kW=1 pf=1
new load.load_10558974 bus1=10558974.3 kv=0.2396003617136947  phases=1 kW=1 pf=1
new load.load_11574578 bus1=11574578.1 kv=0.2396003617136947  phases=1 kW=1 pf=1
new load.load_11574581 bus1=11574581.2 kv=0.2396003617136947  phases=1 kW=1 pf=1
new load.load_10517996 bus1=10517996.3 kv=0.2396003617136947  phases=1 kW=1 pf=1
new load.load_11606175 bus1=11606175.1 kv=0.2396003617136947  phases=1 kW=1 pf=1
new load.load_11546707 bus1=11546707.2 kv=0.2396003617136947  phases=1 kW=1 pf=1
new load.load_11544570 bus1=11544570.3 kv=0.2396003617136947  phases=1 kW=1 pf=1
new load.load_11610320 bus1=11610320.1 kv=0.2396003617136947  phases=1 kW=1 pf=1
new load.load_10517956 bus1=10517956.2 kv=0.2396003617136947  phases=1 kW=1 pf=1
new load.load_10525007 bus1=10525007.3 kv=0.2396003617136947  phases=1 kW=1 pf=1
new load.load_10498372 bus1=10498372.1 kv=0.2396003617136947  phases=1 kW=1 pf=1
new load.load_10473631 bus1=10473631.2 kv=0.2396003617136947  phases=1 kW=1 pf=1
new load.load_11567799 bus1=11567799.3 kv=0.2396003617136947  phases=1 kW=1 pf=1
new load.load_10504368 bus1=10504368.1 kv=0.2396003617136947  phases=1 kW=1 pf=1
new load.load_11615219 bus1=11615219.2 kv=0.2396003617136947  phases=1 kW=1 pf=1
new load.load_11571552 bus1=11571552.3 kv=0.2396003617136947  phases=1 kW=1 pf=1
new load.load_11570440 bus1=11570440.1 kv=0.2396003617136947  phases=1 kW=1 pf=1
new load.load_11544568 bus1=11544568.2 kv=0.2396003617136947  phases=1 kW=1 pf=1
new load.load_10473615 bus1=10473615.3 kv=0.2396003617136947  phases=1 kW=1 pf=1
new load.load_10569454 bus1=10569454.1 kv=0.2396003617136947  phases=1 kW=1 pf=1
new load.load_11555424 bus1=11555424.2 kv=0.2396003617136947  phases=1 kW=1 pf=1
new load.load_10473648 bus1=10473648.3 kv=0.2396003617136947  phases=1 kW=1 pf=1
new load.load_10509031 bus1=10509031.1 kv=0.2396003617136947  phases=1 kW=1 pf=1
new load.load_11564681 bus1=11564681.2 kv=0.2396003617136947  phases=1 kW=1 pf=1
new load.load_10567032 bus1=10567032.3 kv=0.2396003617136947  phases=1 kW=1 pf=1
new load.load_11546706 bus1=11546706.1 kv=0.2396003617136947  phases=1 kW=1 pf=1
new load.load_11574583 bus1=11574583.2 kv=0.2396003617136947  phases=1 kW=1 pf=1
new load.load_11615222 bus1=11615222.3 kv=0.2396003617136947  phases=1 kW=1 pf=1
new load.load_11606191 bus1=11606191.1 kv=0.2396003617136947  phases=1 kW=1 pf=1
new load.load_11540393 bus1=11540393.2 kv=0.2396003617136947  phases=1 kW=1 pf=1
new load.load_10473624 bus1=10473624.3 kv=0.2396003617136947  phases=1 kW=1 pf=1
new load.load_10503450 bus1=10503450.1 kv=0.2396003617136947  phases=1 kW=1 pf=1
new load.load_10504445 bus1=10504445.2 kv=0.2396003617136947  phases=1 kW=1 pf=1
new load.load_11566935 bus1=11566935.3 kv=0.2396003617136947  phases=1 kW=1 pf=1
new load.load_11570443 bus1=11570443.1 kv=0.2396003617136947  phases=1 kW=1 pf=1
new load.load_11425048 bus1=11425048.2 kv=0.2396003617136947  phases=1 kW=1 pf=1
new load.load_11388365 bus1=11388365.3 kv=0.2396003617136947  phases=1 kW=1 pf=1
new load.load_12268661 bus1=12268661.1 kv=0.2396003617136947  phases=1 kW=1 pf=1
new load.load_11645114 bus1=11645114.2 kv=0.2396003617136947  phases=1 kW=1 pf=1
new load.load_11150848 bus1=11150848.3 kv=0.2396003617136947  phases=1 kW=1 pf=1
new load.load_12058123 bus1=12058123.1 kv=0.2396003617136947  phases=1 kW=1 pf=1
new load.load_12053035 bus1=12053035.2 kv=0.2396003617136947  phases=1 kW=1 pf=1
new load.load_11923618 bus1=11923618.3 kv=0.2396003617136947  phases=1 kW=1 pf=1
new load.load_11387744 bus1=11387744.1 kv=0.2396003617136947  phases=1 kW=1 pf=1
new load.load_10944029 bus1=10944029.2 kv=0.2396003617136947  phases=1 kW=1 pf=1
new load.load_10521346 bus1=10521346.3 kv=0.2396003617136947  phases=1 kW=1 pf=1
new load.load_11027953 bus1=11027953.1 kv=0.2396003617136947  phases=1 kW=1 pf=1
new load.load_10730514 bus1=10730514.2 kv=0.2396003617136947  phases=1 kW=1 pf=1
new load.load_10750788 bus1=10750788.3 kv=0.2396003617136947  phases=1 kW=1 pf=1
new load.load_12746466 bus1=12746466.1 kv=0.2396003617136947  phases=1 kW=1 pf=1
new load.load_12745363 bus1=12745363.2 kv=0.2396003617136947  phases=1 kW=1 pf=1
new load.load_11923622 bus1=11923622.3 kv=0.2396003617136947  phases=1 kW=1 pf=1
new load.load_12753324 bus1=12753324.1 kv=0.2396003617136947  phases=1 kW=1 pf=1
new load.load_10730521 bus1=10730521.2 kv=0.2396003617136947  phases=1 kW=1 pf=1
new load.load_11780429 bus1=11780429.3 kv=0.2396003617136947  phases=1 kW=1 pf=1
new load.load_11028754 bus1=11028754.1 kv=0.2396003617136947  phases=1 kW=1 pf=1
new load.load_11158156 bus1=11158156.2 kv=0.2396003617136947  phases=1 kW=1 pf=1
new load.load_10534882 bus1=10534882.3 kv=0.2396003617136947  phases=1 kW=1 pf=1
new load.load_11032239 bus1=11032239.1 kv=0.2396003617136947  phases=1 kW=1 pf=1
new load.load_12054752 bus1=12054752.2 kv=0.2396003617136947  phases=1 kW=1 pf=1
new load.load_11191286 bus1=11191286.3 kv=0.2396003617136947  phases=1 kW=1 pf=1
new load.load_11001406 bus1=11001406.1 kv=0.2396003617136947  phases=1 kW=1 pf=1
new load.load_10530284 bus1=10530284.2 kv=0.2396003617136947  phases=1 kW=1 pf=1
new load.load_12334167 bus1=12334167.3 kv=0.2396003617136947  phases=1 kW=1 pf=1
new load.load_11027954 bus1=11027954.1 kv=0.2396003617136947  phases=1 kW=1 pf=1
new load.load_11919805 bus1=11919805.2 kv=0.2396003617136947  phases=1 kW=1 pf=1
new load.load_11507578 bus1=11507578.3 kv=0.2396003617136947  phases=1 kW=1 pf=1
new load.load_11465485 bus1=11465485.1 kv=0.2396003617136947  phases=1 kW=1 pf=1
new load.load_11027955 bus1=11027955.2 kv=0.2396003617136947  phases=1 kW=1 pf=1
new load.load_10730515 bus1=10730515.3 kv=0.2396003617136947  phases=1 kW=1 pf=1
new load.load_11903867 bus1=11903867.1 kv=0.2396003617136947  phases=1 kW=1 pf=1
new load.load_11032242 bus1=11032242.2 kv=0.2396003617136947  phases=1 kW=1 pf=1
new load.load_11763319 bus1=11763319.3 kv=0.2396003617136947  phases=1 kW=1 pf=1
new load.load_11504789 bus1=11504789.1 kv=0.2396003617136947  phases=1 kW=1 pf=1
new load.load_10937448 bus1=10937448.2 kv=0.2396003617136947  phases=1 kW=1 pf=1
new load.load_10628321 bus1=10628321.3 kv=0.2396003617136947  phases=1 kW=1 pf=1
new load.load_10749604 bus1=10749604.1 kv=0.2396003617136947  phases=1 kW=1 pf=1
new load.load_12757626 bus1=12757626.2 kv=0.2396003617136947  phases=1 kW=1 pf=1
new load.load_12136246 bus1=12136246.3 kv=0.2396003617136947  phases=1 kW=1 pf=1
new load.load_12054750 bus1=12054750.1 kv=0.2396003617136947  phases=1 kW=1 pf=1
new load.load_12266165 bus1=12266165.2 kv=0.2396003617136947  phases=1 kW=1 pf=1
new load.load_11919809 bus1=11919809.3 kv=0.2396003617136947  phases=1 kW=1 pf=1
new load.load_11465491 bus1=11465491.1 kv=0.2396003617136947  phases=1 kW=1 pf=1
new load.load_10749589 bus1=10749589.2 kv=0.2396003617136947  phases=1 kW=1 pf=1
new load.load_11039636 bus1=11039636.3 kv=0.2396003617136947  phases=1 kW=1 pf=1
new load.load_13590839 bus1=13590839.1 kv=0.2396003617136947  phases=1 kW=1 pf=1
new load.load_12136245 bus1=12136245.2 kv=0.2396003617136947  phases=1 kW=1 pf=1
new load.load_12023939 bus1=12023939.3 kv=0.2396003617136947  phases=1 kW=1 pf=1
new load.load_11906841 bus1=11906841.1 kv=0.2396003617136947  phases=1 kW=1 pf=1
new load.load_11150852 bus1=11150852.2 kv=0.2396003617136947  phases=1 kW=1 pf=1
new load.load_14281557 bus1=14281557.3 kv=0.2396003617136947  phases=1 kW=1 pf=1
new load.load_11465906 bus1=11465906.1 kv=0.2396003617136947  phases=1 kW=1 pf=1
new load.load_10617935 bus1=10617935.2 kv=0.2396003617136947  phases=1 kW=1 pf=1
new load.load_11465487 bus1=11465487.3 kv=0.2396003617136947  phases=1 kW=1 pf=1
new load.load_12744107 bus1=12744107.1 kv=0.2396003617136947  phases=1 kW=1 pf=1
new load.load_10944024 bus1=10944024.2 kv=0.2396003617136947  phases=1 kW=1 pf=1
new load.load_11467141 bus1=11467141.3 kv=0.2396003617136947  phases=1 kW=1 pf=1
new load.load_10835354 bus1=10835354.1 kv=0.2396003617136947  phases=1 kW=1 pf=1
new load.load_12744130 bus1=12744130.2 kv=0.2396003617136947  phases=1 kW=1 pf=1
new load.load_11191068 bus1=11191068.3 kv=0.2396003617136947  phases=1 kW=1 pf=1
new load.load_12268660 bus1=12268660.1 kv=0.2396003617136947  phases=1 kW=1 pf=1
new load.load_11138227 bus1=11138227.2 kv=0.2396003617136947  phases=1 kW=1 pf=1
new load.load_11116381 bus1=11116381.3 kv=0.2396003617136947  phases=1 kW=1 pf=1
new load.load_11767184 bus1=11767184.1 kv=0.2396003617136947  phases=1 kW=1 pf=1
new load.load_11465488 bus1=11465488.2 kv=0.2396003617136947  phases=1 kW=1 pf=1
new load.load_10778676 bus1=10778676.3 kv=0.2396003617136947  phases=1 kW=1 pf=1
new load.load_10936284 bus1=10936284.1 kv=0.2396003617136947  phases=1 kW=1 pf=1
new load.load_11645478 bus1=11645478.2 kv=0.2396003617136947  phases=1 kW=1 pf=1
new load.load_11499207 bus1=11499207.3 kv=0.2396003617136947  phases=1 kW=1 pf=1
new load.load_11921136 bus1=11921136.1 kv=0.2396003617136947  phases=1 kW=1 pf=1
new load.load_10777192 bus1=10777192.2 kv=0.2396003617136947  phases=1 kW=1 pf=1
new load.load_10750789 bus1=10750789.3 kv=0.2396003617136947  phases=1 kW=1 pf=1
new load.load_11150850 bus1=11150850.1 kv=0.2396003617136947  phases=1 kW=1 pf=1
new load.load_12746504 bus1=12746504.2 kv=0.2396003617136947  phases=1 kW=1 pf=1
new load.load_12269944 bus1=12269944.3 kv=0.2396003617136947  phases=1 kW=1 pf=1
new load.load_12269942 bus1=12269942.1 kv=0.2396003617136947  phases=1 kW=1 pf=1
new load.load_11922041 bus1=11922041.2 kv=0.2396003617136947  phases=1 kW=1 pf=1
new load.load_10973612 bus1=10973612.3 kv=0.2396003617136947  phases=1 kW=1 pf=1
new load.load_10524983 bus1=10524983.1 kv=0.2396003617136947  phases=1 kW=1 pf=1
new load.load_11029647 bus1=11029647.2 kv=0.2396003617136947  phases=1 kW=1 pf=1
new load.load_12058137 bus1=12058137.3 kv=0.2396003617136947  phases=1 kW=1 pf=1
new load.load_11380799 bus1=11380799.1 kv=0.2396003617136947  phases=1 kW=1 pf=1
new load.load_11920757 bus1=11920757.2 kv=0.2396003617136947  phases=1 kW=1 pf=1
new load.load_12756457 bus1=12756457.3 kv=0.2396003617136947  phases=1 kW=1 pf=1
new load.load_12424444 bus1=12424444.1 kv=0.2396003617136947  phases=1 kW=1 pf=1