! chosen manually using master
! ID here then replace in xxxx

new load.str_9089776_1 bus1=9089776.1 kv=0.2396003617136947 phases=1 kW=0 pf=1
new load.str_9089776_2 bus1=9089776.2 kv=0.2396003617136947 phases=1 kW=0 pf=1
new load.str_9089776_3 bus1=9089776.3 kv=0.2396003617136947 phases=1 kW=0 pf=1
